qwedge_01.out
Test of qwedge element
StaticStructural nsteps 1 nmodules 1
#vtkxml tstep_all domain_all primvars 1 1 vars 2 1 4
errorcheck
domain 3d
OutputManager tstep_all dofman_all element_all
ndofman 15 nelem 1 ncrosssect 1 nmat 1 nbc 2 nic 0 nltf 1 nset 3
node  1 coords 3 0. 0.  0.
node  2 coords 3 2. -2. 0.
node  3 coords 3 4. 0.  0.
node  4 coords 3 0. 0.  6.
node  5 coords 3 2. -2. 6.
node  6 coords 3 4.  0. 6.
node  7 coords 3 1. -1. 0.
node  8 coords 3 3. -1. 0.
node  9 coords 3 2.  0.  0.
node 10 coords 3 1. -1.  6.
node 11 coords 3 3. -1.  6.
node 12 coords 3 2. 0.  6.
node 13 coords 3 0. 0.  3.
node 14 coords 3 2. -2. 3.
node 15 coords 3 4. 0. 3.
#
QWedge 1 nodes 15 1 2 3 4 5 6 7 8 9 10 11 12 13 14 15
#
SimpleCS 1 material 1 set 1
IsoLE 1 d 0. E 1.0 n 0.25 tAlpha 0.0
BoundaryCondition 1 loadTimeFunction 1 values 3 0. 0. 0. dofs 3 1 2 3 set 2
BoundaryCondition 2 loadtimefunction 1 values 3 0. 0. 0.1 dofs 3 0 0 3 set 3
ConstantFunction 1 f(t) 1.0
Set 1 elementRanges {(1 1)}
Set 2 nodes 3 1 2 3
Set 3 nodes 1 5
#%BEGIN_CHECK% tolerance 1.e-6
##
#REACTION tStep 1 number 1 dof 1 value -3.6541e-04
#REACTION tStep 1 number 1 dof 2 value 8.4278e-04
#REACTION tStep 1 number 2 dof 2 value -1.6856e-03
#REACTION tStep 1 number 2 dof 3 value -6.5254e-03
##
#NODE tStep 1 number 4 dof 1 unknown d value -2.69283817e-03
#NODE tStep 1 number 4 dof 2 unknown d value 1.64257307e-01
#NODE tStep 1 number 4 dof 3 unknown d value -1.79528194e-02
## check element no. 1 strain vector
#ELEMENT tStep 1 number 1 gp 1 keyword 4 component 1  value -5.4031e-05
#ELEMENT tStep 1 number 1 gp 1 keyword 4 component 2  value +5.0388e-04
#ELEMENT tStep 1 number 1 gp 1 keyword 4 component 3  value -1.6822e-03
## check element no. 1 stress vector
#ELEMENT tStep 1 number 1 gp 1 keyword 1 component 1  value -5.3617e-04
#ELEMENT tStep 1 number 1 gp 1 keyword 1 component 2  value -8.9844e-05
#ELEMENT tStep 1 number 1 gp 1 keyword 1 component 3  value -1.8387e-03
#%END_CHECK%

