linkslip03.out
Test case for LinkSlip interface material - truss rebar pull-out in 1D.
NonlinearStatic nsteps 1 nmsteps 1 nmodules 0 contextoutputstep 10000
nsteps 15 controlmode 1 rtolf 1.e-3 MaxIter 200 refloadmode 1 ddm 4 3 1 6 1 ddv 2 1.e-6 1.e-6 ddltf 2
#errorcheck
domain 1dtruss
OutputManager tstep_all dofman_all element_all
ndofman 6 nelem 7 ncrosssect 2 nmat 2 nbc 2 nic 0 nltf 2 nset 4
node 1 coords 3 0. 0. 0.
node 2 coords 3 0.1 0. 0.
node 3 coords 3 0.2 0. 0.
node 4 coords 3 0.0 0. 0.
node 5 coords 3 0.1 0. 0.
node 6 coords 3 0.2 0. 0.
truss1d 1 nodes 2 1 2 
truss1d 2 nodes 2 2 3
truss1d 3 nodes 2 3 4
truss1d 4 nodes 2 4 5
bondlink1d 5 nodes 2 1 4 dirvector 3 1 0 0 length 0.05 diameter 0.02
bondlink1d 6 nodes 2 2 5 dirvector 3 1 0 0 length 0.1 diameter 0.02
bondlink1d 7 nodes 2 3 6 dirvector 3 1 0 0 length 0.05 diameter 0.02
Set 1 elements 4 1 2 3 4
Set 2 elements 3 5 6 7
Set 3 nodes 1 1
Set 4 nodes 2 1 6
simpleCS 1 area 3.1416e-4 material 1 set 1
interfacecs 2 material 2 set 2
IsoLE 1 d 1.0 E 2e11 n 0.3 tAlpha 1.0
linkslip 2 kn 6.135e10 kl 6.135e13 type 2 alpha 0.4 s1 1.e-3 s2 2e-3 s3 6.5e-3 t0 1.541e7 tf 6.164e6
BoundaryCondition 1 loadTimeFunction 1 dofs 1 1 values 1 0 set 3
BoundaryCondition 2 loadTimeFunction 1 dofs 1 1 values 1 8e-3
ConstantFunction 1 f(t) 0.0
PiecewiseLinFunction 2 t 2 0.0 20.0 f(t) 2 0.0 1.0

#%BEGIN_CHECK% tolerance 1.e3
##Bond stress values check
#ELEMENT tStep 1 number 5 gp 1 keyword 99 component 1 value 9.0173e+06
#ELEMENT tStep 5 number 5 gp 1 keyword 99 component 1 value 1.54100000e+07
#ELEMENT tStep 8 number 5 gp 1 keyword 99 component 1 value 1.3425e+07
#ELEMENT tStep 15 number 5 gp 1 keyword 99 component 1 value 7.4582e+06
#ELEMENT tStep 19 number 5 gp 1 keyword 99 component 1 value 6.16400000e+06
##
#%END_CHECK%
