steelRelaxMat_CM2_Truss.out
relaxation of prestressing reinforcement, all dofs fixed
#
StaticStructural nsteps 2 prescribedTimes 2 0.0001 0.0002 nmodules 1
#
#errorcheck
vtkxml tstep_step 1 domain_all vars 2 1 4 primvars 1 1
#
domain 2dPlaneStress 
#
OutputManager tstep_all dofman_all element_all
ndofman 6 nelem 2 ncrosssect 2 nmat 2 nbc 3 nic 0 nltf 1 nset 3
#
#
# NODES
#
node   1   coords 2  0.0  0.0  
node   2   coords 2  0.1  0.0 
node   3   coords 2  0.0  0.1  
node   4   coords 2  0.1  0.1 
#
#hangingNode 5 coords 3  0.0  0.05 0.0 dofType 3 2 2 2 masterElementRot 2  dofidmask 3 1 2 5
#hangingNode 6 coords 3  0.1  0.05 0.0 dofType 3 2 2 2 masterElementRot 2  dofidmask 3 1 2 5
hangingNode 5 coords 2  0.0  0.05  dofType 2 2 2  masterElement 2  dofidmask 2 1 2 
hangingNode 6 coords 2  0.1  0.05  dofType 2 2 2  masterElement 2  dofidmask 2 1 2 
#
#
# ELEMENTS
#
#Beam3d         1   nodes 2   5 6      refNode 1 crossSect 2  DofsToCondense 6 3 4 6 9 10 12 
#Beam2d         1   nodes 2   5 6      crossSect 2    
Truss2d         1   nodes 2   5 6      crossSect 2  cs 1 
PlaneStress2d   2   nodes 4   1 2 4 3  crossSect 1
#
Set 1 nodes 1 1 
Set 2 nodes 1 3 
Set 3 nodes 1 2
#
# CROSSECTION
#
SimpleCS 1 thick 1.0 width 1.0 material 1
SimpleCS 2 area 1.e6 Iy 0.002343466 beamShearCoeff 1.e18 thick 0.54 material 2
#
#
# MATERIAL
#
IsoLE 1  d 0. n 0.2 E 30.e3 talpha 0.
IsoLE 2 d 1. E 30.e6 n 0.2 tAlpha 0.
#
#
BoundaryCondition 1 loadTimeFunction 1 dofs 2 1 2  values 2 0. 0. set 1
BoundaryCondition 2 loadTimeFunction 1 dofs 1 1 values 1 0.  set 2
#
NodalLoad 3 loadTimeFunction 1 dofs 2 1 2 components 2 1.0 1.0 set 3
#
#
# TIME FUNCTION
#
ConstantFunction 1 f(t) 1.0
#
#%BEGIN_CHECK% tolerance 5.e-3
#ELEMENT tStep 1 number 1 gp 1 keyword 1 component 1 value 7.35062615e+02
#ELEMENT tStep 1 number 3 gp 1 keyword 1 component 1 value 7.34992211e+02
#%END_CHECK%
