contact_cubes_shear.out
Two cubes, interface elements: normal compression held then sheared (non-dilatant Coulomb)
StaticStructural nsteps 6 rtolv 1.e-3 maxiter 200 nmodules 0
#vtkxml tstep_all primvars 1 1 vars 2 1 4 cellvars 2 138 139 stype 1
domain 3d
OutputManager tstep_all dofman_all element_all
ndofman 16 nelem 16 ncrosssect 2 nmat 2 nbc 3 nic 0 nltf 3
node 1 coords 3 0.0 0.0 -1.0 bc 3 1 1 1
node 2 coords 3 1.0 0.0 -1.0 bc 3 1 1 1
node 3 coords 3 1.0 1.0 -1.0 bc 3 1 1 1
node 4 coords 3 0.0 1.0 -1.0 bc 3 1 1 1
node 5 coords 3 0.0 0.0 0.0 bc 3 0 0 0
node 6 coords 3 1.0 0.0 0.0 bc 3 0 0 0
node 7 coords 3 1.0 1.0 0.0 bc 3 0 0 0
node 8 coords 3 0.0 1.0 0.0 bc 3 0 0 0
node 9 coords 3 0.0 0.0 0.0 bc 3 0 0 0
node 10 coords 3 1.0 0.0 0.0 bc 3 0 0 0
node 11 coords 3 1.0 1.0 0.0 bc 3 0 0 0
node 12 coords 3 0.0 1.0 0.0 bc 3 0 0 0
node 13 coords 3 0.0 0.0 1.0 bc 3 3 1 2
node 14 coords 3 1.0 0.0 1.0 bc 3 3 1 2
node 15 coords 3 1.0 1.0 1.0 bc 3 3 1 2
node 16 coords 3 0.0 1.0 1.0 bc 3 3 1 2
LTRSpace 1 nodes 4 1 2 3 7 crossSect 1 mat 1
LTRSpace 2 nodes 4 1 3 4 7 crossSect 1 mat 1
LTRSpace 3 nodes 4 1 4 8 7 crossSect 1 mat 1
LTRSpace 4 nodes 4 1 8 5 7 crossSect 1 mat 1
LTRSpace 5 nodes 4 1 5 6 7 crossSect 1 mat 1
LTRSpace 6 nodes 4 1 6 2 7 crossSect 1 mat 1
LTRSpace 7 nodes 4 9 10 11 15 crossSect 1 mat 1
LTRSpace 8 nodes 4 9 11 12 15 crossSect 1 mat 1
LTRSpace 9 nodes 4 9 12 16 15 crossSect 1 mat 1
LTRSpace 10 nodes 4 9 16 13 15 crossSect 1 mat 1
LTRSpace 11 nodes 4 9 13 14 15 crossSect 1 mat 1
LTRSpace 12 nodes 4 9 14 10 15 crossSect 1 mat 1
latticecontact3d 13 nodes 2 5 9 crossSect 2 mat 2 area 0.25 normal 3 0. 0. 1.
latticecontact3d 14 nodes 2 6 10 crossSect 2 mat 2 area 0.25 normal 3 0. 0. 1.
latticecontact3d 15 nodes 2 7 11 crossSect 2 mat 2 area 0.25 normal 3 0. 0. 1.
latticecontact3d 16 nodes 2 8 12 crossSect 2 mat 2 area 0.25 normal 3 0. 0. 1.
SimpleCS 1 material 1 thick 1.0
latticecs 2 material 2
IsoLE 1 d 0. E 30.e9 n 0.2 tAlpha 0.
latticebondplast 2 d 0. talpha 0. e 1.e11 a1 1. a2 0. fc 30.e6 angle1 0.5 flowangle 0. iter 100 tol 1.e-9 ef 0.01
BoundaryCondition 1 loadTimeFunction 1 prescribedvalue 0.0
BoundaryCondition 2 loadTimeFunction 2 prescribedvalue -1.e-3
BoundaryCondition 3 loadTimeFunction 3 prescribedvalue 2.e-3
ConstantFunction 1 f(t) 1.
PiecewiseLinFunction 2 nPoints 3 t 3 0. 1. 6. f(t) 3 0. 1. 1.
PiecewiseLinFunction 3 nPoints 3 t 3 0. 1. 6. f(t) 3 0. 0. 1.
