oofem.out
Tetrahedral-element test (ltrspace) on a unit cube
StaticStructural nsteps 1 rtolv 1.e-3 smtype 7 lstype 3
vtkxml tstep_all domain_all primvars 1 1 vars 1 1
domain 3d
OutputManager tstep_all dofman_all element_all
ndofman 66 nelem 150 ncrosssect 1 nmat 1 nbc 0 nic 0 nltf 1 nset 0 
node 1 coords 3 0.000000e+00 0.000000e+00 0.000000e+00
node 2 coords 3 2.500000e-01 0.000000e+00 0.000000e+00
node 3 coords 3 5.000000e-01 0.000000e+00 0.000000e+00
node 4 coords 3 7.500000e-01 0.000000e+00 0.000000e+00
node 5 coords 3 1.000000e+00 0.000000e+00 0.000000e+00
node 6 coords 3 0.000000e+00 1.000000e+00 0.000000e+00
node 7 coords 3 2.500000e-01 1.000000e+00 0.000000e+00
node 8 coords 3 5.000000e-01 1.000000e+00 0.000000e+00
node 9 coords 3 7.500000e-01 1.000000e+00 0.000000e+00
node 10 coords 3 1.000000e+00 1.000000e+00 0.000000e+00
node 11 coords 3 0.000000e+00 0.000000e+00 1.000000e+00
node 12 coords 3 2.500000e-01 0.000000e+00 1.000000e+00
node 13 coords 3 5.000000e-01 0.000000e+00 1.000000e+00
node 14 coords 3 7.500000e-01 0.000000e+00 1.000000e+00
node 15 coords 3 1.000000e+00 0.000000e+00 1.000000e+00
node 16 coords 3 0.000000e+00 1.000000e+00 1.000000e+00
node 17 coords 3 2.500000e-01 1.000000e+00 1.000000e+00
node 18 coords 3 5.000000e-01 1.000000e+00 1.000000e+00
node 19 coords 3 7.500000e-01 1.000000e+00 1.000000e+00
node 20 coords 3 1.000000e+00 1.000000e+00 1.000000e+00
# ... 46 like lines cut
ltrspace 1 nodes 4 12 27 58 65 crossSect 1 mat 1
ltrspace 2 nodes 4 61 63 66 57 crossSect 1 mat 1
ltrspace 3 nodes 4 31 63 58 32 crossSect 1 mat 1
ltrspace 4 nodes 4 63 31 48 32 crossSect 1 mat 1
ltrspace 5 nodes 4 35 27 12 65 crossSect 1 mat 1
ltrspace 6 nodes 4 51 35 12 65 crossSect 1 mat 1
ltrspace 7 nodes 4 53 61 66 57 crossSect 1 mat 1
ltrspace 8 nodes 4 53 51 61 65 crossSect 1 mat 1
ltrspace 9 nodes 4 51 53 66 55 crossSect 1 mat 1
ltrspace 10 nodes 4 51 53 61 66 crossSect 1 mat 1
ltrspace 11 nodes 4 63 59 56 57 crossSect 1 mat 1
ltrspace 12 nodes 4 59 63 61 57 crossSect 1 mat 1
ltrspace 13 nodes 4 22 59 61 57 crossSect 1 mat 1
ltrspace 14 nodes 4 59 22 61 45 crossSect 1 mat 1
ltrspace 15 nodes 4 35 47 27 65 crossSect 1 mat 1
ltrspace 16 nodes 4 41 17 29 60 crossSect 1 mat 1
ltrspace 17 nodes 4 44 63 48 32 crossSect 1 mat 1
ltrspace 18 nodes 4 64 63 48 66 crossSect 1 mat 1
ltrspace 19 nodes 4 63 64 61 66 crossSect 1 mat 1
ltrspace 20 nodes 4 51 64 61 65 crossSect 1 mat 1
# ... 130 like lines cut
SimpleCS 1 material 1
IsoLE 1 d 1.0 E 30.e9 n 0.2 talpha 0
ConstantFunction 1 f(t) 1.0
